Version 4
SHEET 1 1832 880
WIRE 672 48 672 32
WIRE 672 48 464 48
WIRE 384 80 304 80
WIRE 464 80 464 48
WIRE 672 80 672 48
WIRE 752 80 672 80
WIRE 672 96 672 80
WIRE 624 112 544 112
WIRE 384 144 304 144
WIRE 752 144 752 80
WIRE 752 144 672 144
WIRE 464 176 464 144
WIRE 672 272 672 192
WIRE 880 272 672 272
WIRE 976 272 880 272
WIRE 1104 272 976 272
WIRE -384 288 -384 256
WIRE -256 288 -256 256
WIRE 672 304 672 272
WIRE 976 336 976 272
WIRE 880 352 880 272
WIRE -384 416 -384 368
WIRE -320 416 -384 416
WIRE -256 416 -256 368
WIRE -256 416 -320 416
WIRE 304 416 304 144
WIRE 672 416 672 384
WIRE 672 416 304 416
WIRE -320 448 -320 416
WIRE 672 448 672 416
WIRE 880 480 880 416
WIRE 976 496 976 416
WIRE 672 560 672 528
FLAG 304 80 Vref
FLAG 672 32 Vdd
FLAG 672 560 0
FLAG 976 496 0
FLAG 880 480 0
FLAG 1104 272 Vout
FLAG 464 176 0
FLAG -320 448 0
FLAG -384 256 Vref
FLAG -256 256 Vdd
DATAFLAG 784 272 ""
DATAFLAG 560 48 ""
DATAFLAG 464 416 ""
SYMBOL pmos4 624 192 M180
WINDOW 123 54 8 Left 2
SYMATTR Value2 l=0.36u w={wp} m=500
SYMATTR InstName M1
SYMBOL res 656 288 R0
SYMATTR InstName R1
SYMATTR Value 20k
SYMBOL res 656 432 R0
SYMATTR InstName R2
SYMATTR Value 100k
SYMBOL current 976 336 R0
WINDOW 123 0 0 Left 0
WINDOW 39 0 0 Left 0
SYMATTR InstName I1
SYMATTR Value PWL(0 0 5m 0 5.001m 20m 10m 20m 10.001m 0 15m 0)
SYMBOL cap 864 352 R0
SYMATTR InstName C1
SYMATTR Value 10p
SYMBOL voltage -384 272 R0
WINDOW 123 0 0 Left 0
WINDOW 39 0 0 Left 0
SYMATTR InstName V1
SYMATTR Value 1
SYMBOL voltage -256 272 R0
WINDOW 123 0 0 Left 0
WINDOW 39 0 0 Left 0
SYMATTR InstName V2
SYMATTR Value PWL(0 1.6 5m 1.6 5.001m 2 10m 2 10.001m 1.6 15m 1.6)
SYMBOL Err 464 112 R0
SYMATTR InstName X2
TEXT -392 -32 Left 2 !.inc C:\\Users\\lenovo\\Desktop\\ltspice_proj\\tsmc180.txt
TEXT -392 -8 Left 2 ;.op
TEXT -392 24 Left 2 !;.step param wp 1u 15u 1u
TEXT 104 -240 Left 4 ;Low Dropout Regulator(LDO)
TEXT -384 64 Left 2 !.param wp = 12.37u
TEXT -392 112 Left 2 ;.dc V2 0 2 0.1
TEXT -384 152 Left 2 ;.dc I1 100u 20m 0.1m
TEXT -392 -64 Left 2 !.tran 15m
TEXT 984 -112 Left 2 ;Arwaz Khan
TEXT -400 528 Left 2 ;Tran Line - PWL(0 1.6 5m 1.6 5.001m 2 10m 2 10.001m 1.6 15m 1.6)
TEXT -408 560 Left 2 ;Tran Load - PWL(0 0 5m 0 5.001m 20m 10m 20m 10.001m 0 15m 0)
