Version 4
SHEET 1 1580 680
WIRE 944 -544 944 -560
WIRE 208 -496 208 -544
WIRE 208 -496 0 -496
WIRE 464 -496 208 -496
WIRE 944 -496 944 -544
WIRE 1072 -496 944 -496
WIRE 944 -480 944 -496
WIRE 0 -464 0 -496
WIRE 0 -464 -96 -464
WIRE 0 -448 0 -464
WIRE 464 -448 464 -496
WIRE 560 -448 464 -448
WIRE 1072 -432 1072 -496
WIRE 1072 -432 944 -432
WIRE -96 -400 -96 -464
WIRE 0 -400 -96 -400
WIRE 560 -400 560 -448
WIRE 560 -400 464 -400
WIRE 896 -400 752 -400
WIRE 112 -368 48 -368
WIRE 416 -368 112 -368
WIRE 944 -320 944 -384
WIRE 1056 -320 944 -320
WIRE 0 -288 0 -352
WIRE 0 -288 -96 -288
WIRE 464 -288 464 -352
WIRE 544 -288 464 -288
WIRE 944 -288 944 -320
WIRE 0 -272 0 -288
WIRE 464 -272 464 -288
WIRE -1024 -240 -1024 -256
WIRE 1056 -240 1056 -320
WIRE 1056 -240 944 -240
WIRE -96 -224 -96 -288
WIRE 0 -224 -96 -224
WIRE 544 -224 544 -288
WIRE 544 -224 464 -224
WIRE 832 -208 816 -208
WIRE 896 -208 832 -208
WIRE 208 -192 208 -240
WIRE 208 -192 48 -192
WIRE 416 -192 208 -192
WIRE -1024 -160 -1024 -240
WIRE -848 -144 -848 -208
WIRE -656 -144 -656 -192
WIRE 464 -144 464 -176
WIRE 752 -144 752 -400
WIRE 752 -144 464 -144
WIRE -528 -128 -528 -192
WIRE -352 -128 -352 -192
WIRE 0 -128 0 -176
WIRE 112 -128 112 -368
WIRE 112 -128 0 -128
WIRE 752 -112 752 -144
WIRE 816 -112 752 -112
WIRE 944 -112 944 -192
WIRE 944 -112 880 -112
WIRE 1216 -112 944 -112
WIRE 1296 -112 1216 -112
WIRE 0 -96 0 -128
WIRE 464 -96 464 -144
WIRE 0 -48 -112 -48
WIRE 592 -48 464 -48
WIRE 944 -32 944 -112
WIRE -656 -16 -656 -64
WIRE 208 -16 208 -48
WIRE 208 -16 48 -16
WIRE 416 -16 208 -16
WIRE 1216 -16 1216 -112
WIRE -528 0 -528 -48
WIRE -352 0 -352 -48
WIRE -1024 16 -1024 -80
WIRE -848 16 -848 -64
WIRE -112 16 -112 -48
WIRE 0 16 0 0
WIRE 0 16 -112 16
WIRE 464 16 464 0
WIRE 592 16 592 -48
WIRE 592 16 464 16
WIRE 1104 16 944 16
WIRE 800 48 784 48
WIRE 896 48 800 48
WIRE 944 80 944 64
WIRE 1104 80 1104 16
WIRE 1104 80 944 80
WIRE -800 96 -800 80
WIRE -576 96 -576 80
WIRE 0 96 0 16
WIRE 464 96 464 16
WIRE 1216 112 1216 48
WIRE -800 144 -800 96
WIRE -576 144 -576 96
WIRE 208 144 0 144
WIRE 464 144 368 144
WIRE -48 176 -160 176
WIRE 608 176 512 176
WIRE 208 192 208 144
WIRE 208 192 0 192
WIRE 368 192 368 144
WIRE 464 192 368 192
WIRE 944 208 944 80
WIRE 0 256 0 192
WIRE 208 256 0 256
WIRE 464 256 464 192
WIRE 464 256 208 256
WIRE 1072 256 944 256
WIRE -800 288 -800 224
WIRE -688 288 -800 288
WIRE -576 288 -576 224
WIRE -576 288 -688 288
WIRE 896 288 784 288
WIRE 1072 304 1072 256
WIRE 1072 304 944 304
WIRE -688 320 -688 288
WIRE 208 320 208 256
WIRE 336 368 208 368
WIRE 160 400 80 400
WIRE 944 416 944 304
WIRE -688 432 -688 400
WIRE 208 432 208 416
WIRE 336 432 336 368
WIRE 336 432 208 432
WIRE 208 464 208 432
FLAG 208 464 0
FLAG 80 400 Vbias
FLAG -160 176 Vin+
FLAG 608 176 Vin-
FLAG 208 -544 Vdd
FLAG -528 0 0
FLAG -656 -16 0
FLAG -656 -192 Vdd
FLAG -528 -192 Vbias
FLAG -352 0 0
FLAG -352 -192 Vb1
FLAG 208 -48 Vb1
FLAG -848 16 0
FLAG -848 -208 Vb2
FLAG 208 -240 Vb2
FLAG -1024 16 0
FLAG -1024 -240 Vcm
FLAG -688 432 0
FLAG -800 96 Vin+
FLAG -576 96 Vin-
FLAG 944 416 0
FLAG 784 288 Vbias
FLAG 1216 112 0
FLAG 1296 -112 Vout
FLAG 832 -208 Vb2
FLAG 944 -544 Vdd
FLAG 800 48 Vcm
DATAFLAG 1056 -112 ""
DATAFLAG 656 -144 ""
SYMBOL pmos4 48 -448 M0
WINDOW 123 56 108 Left 2
SYMATTR Value2 l=0.36u w={wp}
SYMATTR InstName M1
SYMBOL pmos4 48 -272 M0
WINDOW 123 56 108 Left 2
SYMATTR Value2 l=0.36u w={wp}
SYMATTR InstName M2
SYMBOL pmos4 416 -448 R0
WINDOW 123 56 108 Left 2
SYMATTR Value2 l=0.36u w={wp}
SYMATTR InstName M3
SYMBOL pmos4 416 -272 R0
WINDOW 123 -15 100 Left 2
SYMATTR Value2 l=0.36u w={wp}
SYMATTR InstName M4
SYMBOL nmos4 48 -96 M0
WINDOW 123 56 140 Left 2
SYMATTR Value2 l=0.36u w={2*wn}
SYMATTR InstName M5
SYMBOL nmos4 416 -96 R0
WINDOW 123 56 135 Left 2
SYMATTR Value2 l=0.36u w={2*wn}
SYMATTR InstName M6
SYMBOL nmos4 -48 96 R0
WINDOW 123 -119 129 Left 2
SYMATTR Value2 l=0.36u w={2*wn}
SYMATTR InstName M7
SYMBOL nmos4 512 96 M0
WINDOW 123 -173 125 Left 2
SYMATTR Value2 l=0.36u w={2*wn}
SYMATTR InstName M8
SYMBOL nmos4 160 320 R0
WINDOW 123 56 108 Left 2
SYMATTR Value2 l=0.36u w={4*wn}
SYMATTR InstName M9
SYMBOL voltage -656 -160 R0
WINDOW 123 0 0 Left 0
WINDOW 39 0 0 Left 0
SYMATTR InstName V1
SYMATTR Value 1.8
SYMBOL voltage -528 -144 R0
WINDOW 123 0 0 Left 0
WINDOW 39 0 0 Left 0
SYMATTR InstName V2
SYMATTR Value 0.6
SYMBOL voltage -352 -144 R0
WINDOW 123 0 0 Left 0
WINDOW 39 0 0 Left 0
SYMATTR InstName V3
SYMATTR Value 1
SYMBOL voltage -848 -160 R0
WINDOW 123 0 0 Left 0
WINDOW 39 0 0 Left 0
SYMATTR InstName V4
SYMATTR Value 1
SYMBOL voltage -1024 -176 R0
WINDOW 123 0 0 Left 0
WINDOW 39 0 0 Left 0
SYMATTR InstName V5
SYMATTR Value 0.8
SYMBOL voltage -800 128 R0
WINDOW 3 266 114 Left 2
WINDOW 123 24 132 Left 2
WINDOW 39 0 0 Left 0
SYMATTR Value SINE(0 25u 1k)
SYMATTR Value2 AC 0.5
SYMATTR InstName V6
SYMBOL voltage -576 240 R180
WINDOW 0 24 96 Left 2
WINDOW 3 129 5 Left 2
WINDOW 123 12 -20 Left 2
WINDOW 39 0 0 Left 0
SYMATTR InstName V7
SYMATTR Value SINE(0 25u 1k)
SYMATTR Value2 AC 0.5
SYMBOL voltage -688 304 R0
WINDOW 123 0 0 Left 0
WINDOW 39 0 0 Left 0
SYMATTR InstName V8
SYMATTR Value 0.8
SYMBOL pmos4 896 -480 R0
SYMATTR InstName M10
SYMATTR Value2 l=0.36u w={wp2} m=10
SYMBOL pmos4 896 -288 R0
SYMATTR InstName M11
SYMATTR Value2 l=0.36u w={wp2} m=10
SYMBOL nmos4 896 -32 R0
WINDOW 123 61 141 Left 2
SYMATTR Value2 l=0.36u w={20*wn}
SYMATTR InstName M12
SYMBOL nmos4 896 208 R0
WINDOW 123 56 108 Left 2
SYMATTR Value2 l=0.36u w={20*wn}
SYMATTR InstName M13
SYMBOL cap 1200 -16 R0
SYMATTR InstName C1
SYMATTR Value 1p
SYMBOL cap 880 -128 R90
WINDOW 0 0 32 VBottom 2
WINDOW 3 32 32 VTop 2
SYMATTR InstName C2
SYMATTR Value 0.35p
TEXT -752 -456 Left 2 !.param wp=5.6u
TEXT -752 -376 Left 2 !.param wn=1u
TEXT -848 -536 Left 2 !.include tsmc180.txt
TEXT -1000 -392 Left 2 ;.op
TEXT -984 -328 Left 2 !.ac dec 10 1 100Meg
TEXT -528 -384 Left 2 ;.dc V4 0.1 1.8 0.1
TEXT -480 -336 Left 2 ;.tran 3m
TEXT -400 -560 Left 2 !;.step param wp2 5u 25u 0.1u
TEXT -352 -520 Left 2 !.param wp2=5.71u
